**NSET COUNT = 607
*NODE
1,                0.74534,        0.75046,        0.82163
2,                0.62267,        0.75023,        0.91082
3,                0.62267,        0.87523,        0.91082
4,                0.74767,        0.75023,        0.91082
5,                0.87500,        0.50000,        0.87500
6,                0.74767,        0.62523,        0.91082
7,                0.87267,        0.62523,        0.91082
8,                0.87267,        0.62523,        0.78582
9,                0.87267,        0.75023,        0.91082
10,               0.87267,        0.75023,        0.78582
11,               0.87500,        0.62500,        0.62500
12,               0.87500,        0.75000,        0.62500
13,               0.74767,        0.75023,        0.66082
14,               0.66838,        0.54400,        0.72860
15,               0.87500,        0.50000,        0.62500
16,               0.70919,        0.52200,        0.61430
17,               0.83419,        0.52200,        0.73930
18,               0.70919,        0.64700,        0.61430
19,               0.62500,        0.87500,        0.62500
20,               0.50000,        0.87500,        0.62500
** ... 587 like lines cut
**
**ELSET COUNT = 177
**HWCOLOR COMP         54     0
*ELEMENT, TYPE=C3D10, ELSET=UPPER
         1,       292,       187,       288,         1,       294,       291,       293,
         2,         3,         4
         2,       302,       227,       230,         1,       303,       231,         5,
         6,         7,         8
         3,       302,       288,       227,         1,       304,       301,       303,
         6,         4,         7
         4,       227,       288,       217,         1,       301,       289,       228,
         7,         4,         9
         5,       227,       217,       220,         1,       228,       221,       229,
         7,         9,        10
         6,       227,       220,       230,         1,       229,       232,       231,
         7,        10,         8
         7,       337,       230,       220,         1,        11,       232,        12,
        13,         8,        10
         8,       351,       230,       337,        14,        15,        11,       353,
        16,        17,        18
         9,       341,       337,       190,         1,       342,        19,        20,
        21,        13,        22
        10,       337,       178,       190,         1,        23,       192,        19,
        13,        24,        22
** ... 334 like lines cut
**
**ELSET COUNT = 92
**HWCOLOR COMP          1     0
*ELEMENT, TYPE=C3D10, ELSET=LOWER
       354,       594,       525,       584,       521,       595,       593,       596,
       385,       526,       386
       355,       482,       511,       475,       479,       514,       513,       483,
       484,       387,       481
       356,       594,       447,       438,       444,       603,       448,       388,
       389,       449,       446
       357,       540,       546,       588,       536,       549,       390,       592,
       541,       548,       391
       358,       569,       518,       521,       511,       570,       522,       392,
       393,       520,       523
       359,       584,       521,       515,       511,       386,       524,       585,
       394,       523,       516
       360,       460,       450,       598,       456,       462,       605,       606,
       461,       459,       395
       361,       543,       573,       546,       536,       577,       396,       547,
       545,       397,       548
       362,       588,       584,       495,       491,       589,       587,       590,
       398,       399,       496
       363,       588,       495,       501,       491,       590,       504,       400,
       398,       496,       503
** ... 164 like lines cut
**
**ELSET COUNT = 18
*SURFACE,TYPE=ELEMENT,NAME=LOWER_TO_UPPER
373,S1
433,S1
430,S1
426,S1
371,S1
422,S1
421,S1
436,S1
380,S1
386,S1
372,S1
414,S1
404,S1
415,S1
368,S1
416,S1
413,S1
412,S1
**
**ELSET COUNT = 18
*SURFACE,TYPE=ELEMENT,NAME=LOWER_BOTTOM
439,S1
432,S1
360,S1
409,S1
366,S1
408,S1
437,S1
440,S1
393,S1
397,S1
354,S1
444,S1
435,S1
364,S1
362,S1
442,S1
417,S1
411,S1
**
**ELSET COUNT = 12
*SURFACE,TYPE=ELEMENT,NAME=LOWER_SYM13
428,S1
445,S2
360,S2
431,S2
366,S2
439,S3
374,S3
356,S3
373,S4
425,S4
430,S4
367,S4
**
**ELSET COUNT = 12
*SURFACE,TYPE=ELEMENT,NAME=LOWER_SYM23
427,S1
445,S1
370,S1
438,S1
420,S1
439,S2
357,S2
421,S2
365,S3
437,S4
361,S4
435,S4
**
**ELSET COUNT = 32
*SURFACE,TYPE=ELEMENT,NAME=UPPER_TOP
172,S1
160,S1
175,S1
150,S1
66,S1
67,S1
145,S1
144,S1
155,S1
148,S1
83,S1
88,S1
18,S1
19,S1
156,S1
135,S1
162,S1
149,S1
39,S1
38,S1
** ... 12 like lines cut
**
**ELSET COUNT = 32
*SURFACE,TYPE=ELEMENT,NAME=UPPER_TO_LOWER
152,S1
112,S1
108,S1
78,S1
76,S1
75,S1
158,S1
33,S1
113,S1
117,S1
84,S1
92,S1
21,S1
22,S1
142,S1
141,S1
147,S1
134,S1
49,S1
48,S1
** ... 12 like lines cut
**
**ELSET COUNT = 16
*SURFACE,TYPE=ELEMENT,NAME=UPPER_SYM13
109,S1
122,S1
77,S1
79,S1
64,S1
65,S1
157,S1
151,S2
143,S2
158,S2
139,S2
152,S3
159,S4
106,S4
175,S4
35,S4
**
**ELSET COUNT = 16
*SURFACE,TYPE=ELEMENT,NAME=UPPER_SYM23
151,S1
114,S1
115,S1
171,S1
146,S1
152,S2
166,S2
172,S2
155,S2
161,S2
162,S2
153,S2
169,S4
147,S4
173,S4
52,S4
**
**Property Definitions
**
*SOLID SECTION, ELSET=UPPER, MATERIAL=Def_Material
*SOLID SECTION, ELSET=LOWER, MATERIAL=Def_Material
**
**Material Definitions
**
**Material:Def_Material
*MATERIAL,NAME=Def_Material
*ELASTIC,TYPE=ISO
2.08000e+005,3.00000e-001
*DENSITY
7.80000e-009,
*SPECIFIC HEAT
5.00000e-001
*CONDUCTIVITY
4.98100e-002
**