*HEADING
Abaqus Job Created By SimLab 2017.2 .
*******************************************************************************
****		Created at 13:26:7, June 18,2018
****		NODES= 24116
****		ELEMENTS= 16975
*******************************************************************************
**NSET COUNT = 24116
*NODE,NSET=NALL
1,               16.00000,        0.00000,        0.00000
2,               15.21690,       -4.94427,        0.00000
3,               12.94427,       -9.40456,        0.00000
4,                9.40456,      -12.94427,        0.00000
5,                4.94427,      -15.21690,        0.00000
6,                0.00000,      -16.00000,        0.00000
7,               -4.94427,      -15.21690,        0.00000
8,               -9.40456,      -12.94427,        0.00000
9,              -12.94427,       -9.40456,        0.00000
10,             -15.21690,       -4.94427,        0.00000
11,             -16.00000,       -0.00000,        0.00000
12,             -15.21690,        4.94427,        0.00000
13,             -12.94427,        9.40456,        0.00000
14,              -9.40456,       12.94427,        0.00000
15,              -4.94427,       15.21690,        0.00000
16,              -0.00000,       16.00000,        0.00000
17,               4.94427,       15.21690,        0.00000
18,               9.40456,       12.94427,        0.00000
19,              12.94427,        9.40456,        0.00000
20,              15.21690,        4.94427,        0.00000
** ... 24096 like lines cut
**
**ELSET COUNT = 16975
**HWCOLOR COMP          1     0
*ELEMENT, TYPE=C3D10, ELSET=Body1
      2141,      4645,      4666,      4667,      5586,     10973,     10976,     10975,
     17012,     19979,      3454
      2142,      4645,      4667,      4676,      5586,     10975,     11031,     17014,
     17012,      3454,     17013
      2143,       365,       366,       386,      4681,      1097,      1115,      1114,
     21247,     21356,     11056
      2144,       365,       386,       385,      4681,      1114,      1116,      1112,
     21247,     11056,     11054
      2145,       386,       387,       407,      4795,      1700,      1714,      1713,
      3455,     19502,     23781
      2146,       386,       407,       406,      4795,      1713,      1715,      1136,
      3455,     23781,     23780
      2147,       366,       367,       387,      5822,      1685,      1699,      1698,
     21249,     21248,     19511
      2148,       386,      4682,      4681,      5822,     11057,     11059,     11056,
      3456,     19516,     21353
      2149,       386,      4795,      4682,      5822,      3455,     11585,     11057,
      3456,     19514,     19516
      2150,       386,       387,      4795,      5822,      1700,     19502,      3455,
      3456,     19511,     19514
** ... 33930 like lines cut
**
**NSET COUNT = 221
*NSET, NSET=Fixed_face_set
         1,         2,         3,         4,         5,         6,         7,         8,
         9,        10,        11,        12,        13,        14,        15,        16,
        17,        18,        19,        20,       674,       675,       676,       677,
       678,       679,       680,       681,       682,       683,       686,       687,
       688,       689,       690,       691,       692,       693,       694,       695,
       696,       697,       698,       699,       702,       703,       704,       705,
       706,       707,       708,       709,       710,       711,       714,       715,
       716,       717,       718,       719,       722,       734,       739,       748,
       757,       766,      1033,      1034,      1035,      1038,      1039,      1045,
      1046,      1047,      1054,      1066,      1067,      1068,      1071,      1082,
      1083,      1084,      1086,      1092,      1093,      1098,      1099,      1107,
      1119,      1120,      1123,      1133,      1134,      1137,      1143,      1144,
      1145,      1152,      1153,      1154,      1157,      1172,      1173,      1174,
      1177,      1188,      1189,      1190,      1192,      1198,      1199,      1200,
      1207,      1208,      1209,      1212,      1227,      1228,      1229,      1232,
      1239,      1240,      1247,      1248,      1251,      1256,      1257,      1259,
      1266,      1267,      1270,      1285,      1286,      1289,      1295,      1296,
      1303,      1304,      1307,      1322,      1323,      1326,      1331,      1332,
      1340,      1341,      1344,      1351,      1358,      1359,      1362,      1367,
      1368,      1375,      1376,      1379,      1390,      1391,      1398,      1401,
** ... 8 like lines cut
**NSET COUNT = 221
*NSET, NSET=Coupling_nodes_set
       601,       602,       603,       604,       605,       606,       607,       608,
       609,       610,       611,       612,       613,       614,       615,       616,
       617,       618,       619,       620,       621,       622,       623,       624,
       625,       626,       627,       628,       629,       630,       633,       634,
       635,       636,       637,       638,       639,       640,       641,       642,
       643,       644,       645,       646,       649,       650,       651,       652,
       653,       654,       655,       656,       657,       658,       661,       662,
       663,       664,       665,       666,       669,       728,       729,       730,
       731,       732,       733,       742,       743,       745,       746,       747,
       751,       752,       754,       755,       756,       760,       761,       763,
       764,       765,       769,       770,       772,       773,       776,       777,
       780,       781,       784,       786,       787,       790,       792,       793,
       794,       798,       799,       802,       803,       805,       806,       809,
       810,       813,       814,       817,       818,       820,       821,       824,
       826,       827,       830,       831,       833,       834,       837,      1336,
      1339,      1345,      1348,      1865,      1868,      1871,      1874,      1877,
      2312,      2315,      2318,      2321,      2732,      2735,      2738,      2741,
      2743,      2744,      2745,      2746,      2747,      2748,      2749,      2750,
      2751,      2752,      2753,      2754,      2755,      2756,      2757,      2758,
      2759,      2760,      2761,      2762,      2763,      2764,      2765,      2766,
** ... 8 like lines cut
**NSET COUNT = 1
*NSET, NSET=ref_node_set
       621,
**NSET COUNT = 20
*NSET, NSET=circlenodes_set
       601,       602,       603,       604,       605,       606,       607,       608,
       609,       610,       611,       612,       613,       614,       615,       616,
       617,       618,       619,       620,
**Property Definitions
**
*SOLID SECTION, ELSET=Body1, MATERIAL=Steel
**
**Material Definitions
**
**Material:Steel
*MATERIAL,NAME=Steel
*ELASTIC,TYPE=ISO
2.08000e+005,3.00000e-001
*DENSITY
7.80000e-009,
*SPECIFIC HEAT
5.00000e-001
*CONDUCTIVITY
4.98100e-002
**
**
**Face Constraint Face_Constraint_4
**
*NSET, NSET=Face_Constraint_4
      1562,         1,         2,      1340,      1341,         3,         4,      1119,
      1566,       674,      1120,         5,         6,      1344,       675,       676,
         7,      1569,      1123,       677,         8,       678,         9,       679,
      1571,        10,       680,        11,       681,        12,      1574,      1351,
       682,        13,       683,        14,      1576,        15,        16,        17,
       686,      1579,       687,        18,      1133,       688,      1134,        19,
      1581,       689,      1358,        20,      1359,       690,       691,      1137,
       692,      1585,      1362,       693,       694,       695,       696,      1589,
       697,      1143,      1367,       698,      1144,       699,      1368,      1145,
       702,       703,       704,       705,       706,      1375,      1152,       707,
      1376,      1153,       708,      1154,       709,       710,      1379,       711,
      1157,       714,       715,       716,       717,       718,       719,      1390,
       722,      1391,      1172,      1173,      1174,      1398,      1177,      1401,
       734,      1405,      1406,      1408,       739,      1188,      1189,      1190,
      1415,      1192,      1416,       748,      1419,      1198,      1199,      1200,
       757,      1429,      1430,      1207,      1208,      1209,      1212,       766,
      1437,      1438,      1440,      1450,      1227,      1451,      1228,      1229,
      1232,      1458,      1459,      1462,      1239,      1240,      1247,      1248,
      1472,      1473,      1251,      1256,      1033,      1480,      1257,      1034,
      1481,      1035,      1259,      1483,      1038,      1039,      1489,      1266,
** ... 8 like lines cut
**
*BOUNDARY
**Fixed constraints:Face_Constraint_4
Face_Constraint_4,	1
Face_Constraint_4,	2
Face_Constraint_4,	3
**
*Step,inc=100
*Static
0.000010,1.000000,
** Output Requests
*output,field,Variable=ALL
*NODE FILE, FREQUENCY=99
U,V,RF,NT
*Restart, Write
*End Step