*Heading
*Preprint, echo=NO, model=NO, history=NO, contact=NO
**
** PARTS
**
*Part, name=beam
*Node
      1,         -10.,         -30.,         500.
      2,         -10.,         -10.,         500.
      3,         -10.,         -10.,           0.
      4,         -10.,         -30.,           0.
      5,          10.,         -10.,         500.
      6,          10.,         -10.,           0.
      7,          10.,         -30.,           0.
      8,          10.,         -30.,         500.
      9,         -10.,         -10.,         475.
     10,         -10.,         -10.,         450.
     11,         -10.,         -10.,         425.
     12,         -10.,         -10.,         400.
     13,         -10.,         -10.,         375.
     14,         -10.,         -10.,         350.
     15,         -10.,         -10.,         325.
     16,         -10.,         -10.,         300.
     17,         -10.,         -10.,         275.
     18,         -10.,         -10.,         250.
     19,         -10.,         -10.,         225.
     20,         -10.,         -10.,         200.
** ... 498 like lines cut
*Element, type=C3D10
  1,  85,  15,  54,  16, 105, 104, 103, 107, 106, 108
  2,  85,  39,  86,  77, 111, 110, 109, 113, 112, 114
  3,  85,  53,  15,  78, 116, 115, 105, 118, 117, 119
  4,  87,  47,  88,   9, 122, 121, 120, 124, 123, 125
  5,  87,   2,   9,   1, 127, 126, 124, 129, 128, 130
  6,  87,  46,   1,   9, 132, 131, 129, 124, 133, 130
  7,  87,  84,  46,  88, 135, 134, 132, 120, 136, 137
  8,  88,  82,  44,  11, 140, 139, 138, 142, 141, 143
  9,  11,  44,  88,  45, 143, 138, 142, 145, 144, 146
 10,  10,  48,  88,  49, 149, 148, 147, 151, 150, 152
 11,  49,  48,  88,  82, 150, 148, 152, 154, 153, 140
 12,  85,  40,  16,  39, 156, 155, 107, 111, 157, 158
 13,  85,  78,  15,  40, 118, 119, 105, 156, 159, 160
 14,  85,  53,  78,  77, 116, 117, 118, 113, 161, 162
 15,  19,  36,  89,  37, 165, 164, 163, 167, 166, 168
 16,  57,  19,  89,  18, 170, 163, 169, 172, 171, 173
 17,  89,  57,  56,  74, 169, 175, 174, 177, 176, 178
 18,  63,  25,  90,  24, 181, 180, 179, 183, 182, 184
 19,  63,  90,  62,  24, 179, 186, 185, 183, 184, 187
 20,  58,  91,  57,  19, 190, 189, 188, 192, 191, 170
** ... 213 like lines cut
*Nset, nset=solid, generate
   1,  518,    1
*Elset, elset=solid, generate
   1,  233,    1
** Section: solid
*Solid Section, elset=solid, material=steel
,
*End Part
**  
**
** ASSEMBLY
**
*Assembly, name=Assembly
**  
*Instance, name=beam-1, part=beam
*End Instance
**  
*Nset, nset=fixed, instance=beam-1
   3,   4,   6,   7, 293, 395, 511, 512, 514
*Elset, elset=fixed, instance=beam-1
 206, 211
*End Assembly
** 
** MATERIALS
** 
*Material, name=steel
*Density
 7.85e-09,
*Elastic
208000., 0.3
** ----------------------------------------------------------------
** 
** 
*Step
*MATRIX GENERATE, MASS, STIFFNESS
*MATRIX OUTPUT, STIFFNESS, MASS, FORMAT=COORDINATE 
** Name: fixed Type: Displacement/Rotation
*Boundary
fixed, 1, 1
fixed, 2, 2
fixed, 3, 3
** 
*End Step
