**NSET COUNT = 116
*NODE
127,              1.00000,        0.00000,        0.75000
128,              1.00000,        0.00000,        1.00000
129,              0.75000,        0.00000,        1.00000
133,              0.75000,        0.00000,        0.75000
136,              1.00000,        0.00000,        0.50000
139,              0.75000,        0.00000,        0.50000
142,              0.50000,        0.00000,        1.00000
145,              0.50000,        0.00000,        0.75000
149,              0.50000,        0.00000,        0.50000
152,              0.25000,        0.00000,        1.00000
155,              0.25000,        0.00000,        0.75000
159,              0.25000,        0.00000,        0.50000
162,              0.00000,        0.00000,        1.00000
165,              0.00000,        0.00000,        0.75000
169,              0.00000,        0.00000,        0.50000
172,              0.75000,        1.00000,        1.00000
173,              1.00000,        1.00000,        1.00000
174,              1.00000,        1.00000,        0.75000
178,              0.75000,        1.00000,        0.75000
181,              1.00000,        1.00000,        0.50000
** ... 96 like lines cut
**
**ELSET COUNT = 172
**HWCOLOR COMP         54     0
*ELEMENT, TYPE=C3D4, ELSET=UPPER
       570,       252,       262,       255,       609
       571,       252,       310,       262,       609
       572,       252,       296,       310,       609
       573,       200,       252,       255,       609
       574,       296,       306,       310,       609
       575,       262,       310,       265,       609
       576,       259,       265,       269,       359
       577,       184,       337,       220,       610
       578,       259,       345,       265,       359
       579,       288,       608,       292,       610
       580,       187,       288,       292,       610
       581,       172,       288,       187,       610
       582,       178,       172,       187,       610
       583,       178,       220,       172,       610
       584,       172,       220,       288,       610
       585,       230,       240,       237,       316
       586,       178,       184,       220,       610
       587,       178,       190,       184,       610
       588,       178,       187,       190,       610
       589,       187,       292,       190,       610
** ... 152 like lines cut
**
**ELSET COUNT = 92
**HWCOLOR COMP          1     0
*ELEMENT, TYPE=C3D4, ELSET=LOWER
       742,       456,       460,       466,       598
       743,       444,       450,       456,       598
       744,       444,       525,       447,       594
       745,       536,       540,       588,       598
       746,       453,       456,       463,       543
       747,       533,       543,       536,       573
       748,       444,       456,       453,       573
       749,       466,       550,       546,       598
       750,       536,       543,       546,       573
       751,       491,       536,       495,       588
       752,       438,       447,       444,       525
       753,       444,       594,       450,       598
       754,       444,       521,       525,       594
       755,       438,       444,       440,       521
       756,       540,       546,       550,       598
       757,       453,       456,       543,       573
       758,       488,       491,       559,       563
       759,       505,       536,       540,       588
       760,       440,       444,       453,       573
       761,       491,       495,       584,       588
** ... 72 like lines cut
**
**ELSET COUNT = 18
*SURFACE,TYPE=ELEMENT,NAME=LOWER_TO_UPPER
799,S1
798,S1
764,S2
814,S2
747,S2
828,S2
819,S2
822,S2
777,S3
746,S4
757,S4
760,S4
780,S4
783,S4
817,S4
758,S4
774,S4
830,S4
**
**ELSET COUNT = 18
*SURFACE,TYPE=ELEMENT,NAME=LOWER_BOTTOM
806,S1
807,S1
831,S2
779,S2
785,S2
778,S2
753,S3
762,S3
744,S3
745,S3
809,S3
761,S3
820,S3
816,S3
756,S4
759,S4
772,S4
763,S4
**
**ELSET COUNT = 12
*SURFACE,TYPE=ELEMENT,NAME=LOWER_SYM13
831,S1
742,S1
832,S1
746,S1
785,S1
743,S1
748,S1
760,S1
762,S1
752,S1
755,S1
767,S1
**
**ELSET COUNT = 12
*SURFACE,TYPE=ELEMENT,NAME=LOWER_SYM23
749,S1
756,S1
790,S1
750,S1
747,S1
759,S1
831,S3
832,S3
781,S3
765,S3
824,S3
771,S3
**
**ELSET COUNT = 32
*SURFACE,TYPE=ELEMENT,NAME=UPPER_TOP
678,S1
689,S1
642,S1
641,S1
615,S1
616,S1
622,S1
623,S1
603,S1
721,S1
571,S1
572,S1
574,S1
729,S1
714,S1
715,S1
580,S1
581,S1
704,S2
694,S2
** ... 12 like lines cut
**
**ELSET COUNT = 32
*SURFACE,TYPE=ELEMENT,NAME=UPPER_TO_LOWER
647,S1
648,S1
612,S1
611,S1
696,S1
649,S1
650,S1
726,S1
723,S1
737,S1
736,S1
724,S1
725,S1
595,S1
594,S1
708,S2
657,S2
701,S2
578,S2
685,S2
** ... 12 like lines cut
**
**ELSET COUNT = 16
*SURFACE,TYPE=ELEMENT,NAME=UPPER_SYM13
653,S1
652,S1
654,S1
655,S1
621,S1
620,S1
619,S1
618,S1
709,S2
711,S2
683,S3
665,S3
678,S3
696,S4
706,S4
704,S4
**
**ELSET COUNT = 16
*SURFACE,TYPE=ELEMENT,NAME=UPPER_SYM23
683,S1
687,S1
665,S1
693,S1
710,S1
688,S1
691,S1
694,S1
576,S1
740,S1
741,S1
570,S1
638,S1
671,S1
667,S3
684,S3
**
**Property Definitions
**
*SOLID SECTION, ELSET=UPPER, MATERIAL=Def_Material
*SOLID SECTION, ELSET=LOWER, MATERIAL=Def_Material
**
**Material Definitions
**
**Material:Def_Material
*MATERIAL,NAME=Def_Material
*ELASTIC,TYPE=ISO
2.08000e+005,3.00000e-001
*DENSITY
7.80000e-009,
*SPECIFIC HEAT
5.00000e-001
*CONDUCTIVITY
4.98100e-002
**