**NSET COUNT = 48
*NODE
1,                0.00000,      100.00000,        0.00000
2,              100.00000,        0.00000,        0.00000
3,                0.00000,        0.00000,        0.00000
4,               50.00000,       50.00000,        0.00000
5,               50.00000,        0.00000,        0.00000
6,               -0.00000,       50.00000,        0.00000
7,              100.00000,        0.00000,       25.00000
8,                0.00000,      100.00000,       25.00000
9,                0.00000,        0.00000,       25.00000
10,              50.00000,       50.00000,       25.00000
11,              -0.00000,       50.00000,       25.00000
12,              50.00000,        0.00000,       25.00000
13,               0.00000,        0.00000,       12.50000
14,              50.00000,        0.00000,       12.50000
15,             100.00000,        0.00000,       12.50000
16,               0.00000,      100.00000,       12.50000
17,              -0.00000,       50.00000,       12.50000
18,              50.00000,       50.00000,       12.50000
19,              25.00000,       75.00000,       18.75000
20,              25.00000,       75.00000,        6.25000
** ... 28 like lines cut
**
**ELSET COUNT = 6
**HWCOLOR COMP         98     0
*ELEMENT, TYPE=C3D10, ELSET=LOWER
        26,         1,         3,         2,        18,         6,         5,         4,
        20,        23,        22
        27,         1,         8,         9,        18,        16,        11,        17,
        20,        19,        24
        28,         3,         9,         7,        18,        13,        12,        14,
        23,        24,        21
        29,         7,         9,         8,        18,        12,        11,        10,
        21,        24,        19
        30,         1,         9,         3,        18,        17,        13,         6,
        20,        24,        23
        31,         2,         3,         7,        18,         5,        14,        15,
        22,        23,        21
**
**ELSET COUNT = 6
**HWCOLOR COMP         99     0
*ELEMENT, TYPE=C3D10, ELSET=UPPER
        32,        27,        34,        35,        44,        42,        37,        43,
        46,        45,        26
        33,        29,        35,        33,        44,        39,        38,        40,
        25,        26,        47
        34,        33,        35,        34,        44,        38,        37,        36,
        47,        26,        45
        35,        27,        35,        29,        44,        43,        39,        32,
        46,        26,        25
        36,        28,        29,        33,        44,        31,        40,        41,
        48,        25,        47
        37,        27,        29,        28,        44,        32,        31,        30,
        46,        25,        48
**
**ELSET COUNT = 1
*SURFACE,TYPE=ELEMENT,NAME=UPPER_FIXED
34,S1
**
**ELSET COUNT = 1
*SURFACE,TYPE=ELEMENT,NAME=LOWER_FIXED
26,S1
**
**ELSET COUNT = 1
*SURFACE,TYPE=ELEMENT,NAME=UPPER_TO_LOWER
37,S1
**
**ELSET COUNT = 1
*SURFACE,TYPE=ELEMENT,NAME=LOWER_TO_UPPER
29,S1
**
**Property Definitions
**
*SOLID SECTION, ELSET=LOWER, MATERIAL=Def_Material
*SOLID SECTION, ELSET=UPPER, MATERIAL=Def_Material
**
**Material Definitions
**
**Material:Def_Material
*MATERIAL,NAME=Def_Material
*ELASTIC,TYPE=ISO
2.08000e+005,3.00000e-001
*DENSITY
7.80000e-009,
*SPECIFIC HEAT
5.00000e-001
*CONDUCTIVITY
4.98100e-002
**